#Author wanhong
#email scu.wanhong@gmail.com 215587407@qq.com
Git is a distributed version control system
Git is free software distributed under the GPL.
New Line.
New Line.
Git has a mutable index called stage.
Git tracks changes of files.
Git branch test tested testing.
